  Page 1                                    Mon Apr 25 12:46:05 2022

  ******************************************************************
  *                           E P A N E T                          *
  *                   Hydraulic and Water Quality                  *
  *                   Analysis for Pipe Networks                   *
  *                         Version 2.2                            *
  ******************************************************************
  
  Analysis begun Mon Apr 25 12:46:05 2022

  Analysis ended Mon Apr 25 12:46:05 2022
